312
Initial Data (6)
C1 -6.68 -1.15 -5.72
C1 -7.68 0.58 -5.72
C1 -5.68 0.58 -5.72
C1 -7.68 -4.04 -4.08
C1 -5.68 -4.04 -4.08
C1 -8.68 -2.31 -4.08
C1 -6.68 -2.31 -4.08
C1 -4.68 -2.31 -4.08
C1 -2.68 -2.31 -4.08
C1 -9.68 -0.58 -4.08
C1 -7.68 -0.58 -4.08
C1 -5.68 -0.58 -4.08
C1 -3.68 -0.58 -4.08
C1 -8.68 1.15 -4.08
C1 -6.68 1.15 -4.08
C1 -4.68 1.15 -4.08
C1 -2.68 1.15 -4.08
C1 -7.68 2.89 -4.08
C1 -5.68 2.89 -4.08
C1 -3.68 2.89 -4.08
C1 -8.68 -4.62 -2.45
C1 -6.68 -4.62 -2.45
C1 -4.68 -4.62 -2.45
C1 -9.68 -2.89 -2.45
C1 -7.68 -2.89 -2.45
C1 -5.68 -2.89 -2.45
C1 -3.68 -2.89 -2.45
C1 -1.68 -2.89 -2.45
C1 -10.68 -1.15 -2.45
C1 -8.68 -1.15 -2.45
C1 -6.68 -1.15 -2.45
C1 -4.68 -1.15 -2.45
C1 -2.68 -1.15 -2.45
C1 -9.68 0.58 -2.45
C1 -7.68 0.58 -2.45
C1 -5.68 0.58 -2.45
C1 -3.68 0.58 -2.45
C1 -1.68 0.58 -2.45
C1 -10.68 2.31 -2.45
C1 -8.68 2.31 -2.45
C1 -6.68 2.31 -2.45
C1 -4.68 2.31 -2.45
C1 -2.68 2.31 -2.45
C1 -9.68 4.04 -2.45
C1 -7.68 4.04 -2.45
C1 -5.68 4.04 -2.45
C1 -3.68 4.04 -2.45
C1 -6.68 -5.77 -0.82
C1 -9.68 -4.04 -0.82
C1 -7.68 -4.04 -0.82
C1 -5.68 -4.04 -0.82
C1 -3.68 -4.04 -0.82
C1 -10.68 -2.31 -0.82
C1 -8.68 -2.31 -0.82
C1 -6.68 -2.31 -0.82
C1 -4.68 -2.31 -0.82
C1 -2.68 -2.31 -0.82
C1 -11.68 -0.58 -0.82
C1 -9.68 -0.58 -0.82
C1 -7.68 -0.58 -0.82
C1 -5.68 -0.58 -0.82
C1 -3.68 -0.58 -0.82
C1 -1.68 -0.58 -0.82
C1 -10.68 1.15 -0.82
C1 -8.68 1.15 -0.82
C1 -6.68 1.15 -0.82
C1 -4.68 1.15 -0.82
C1 -2.68 1.15 -0.82
C1 -0.68 1.15 -0.82
C1 -9.68 2.89 -0.82
C1 -7.68 2.89 -0.82
C1 -5.68 2.89 -0.82
C1 -3.68 2.89 -0.82
C1 -1.68 2.89 -0.82
C1 -8.68 4.62 -0.82
C1 -6.68 4.62 -0.82
C1 -4.68 4.62 -0.82
C1 -2.68 4.62 -0.82
C1 -8.68 -4.62 0.82
C1 -6.68 -4.62 0.82
C1 -4.68 -4.62 0.82
C1 -2.68 -4.62 0.82
C1 -9.68 -2.89 0.82
C1 -7.68 -2.89 0.82
C1 -5.68 -2.89 0.82
C1 -3.68 -2.89 0.82
C1 -1.68 -2.89 0.82
C1 -10.68 -1.15 0.82
C1 -8.68 -1.15 0.82
C1 -6.68 -1.15 0.82
C1 -4.68 -1.15 0.82
C1 -2.68 -1.15 0.82
C1 -0.68 -1.15 0.82
C1 -11.68 0.58 0.82
C1 -9.68 0.58 0.82
C1 -7.68 0.58 0.82
C1 -5.68 0.58 0.82
C1 -3.68 0.58 0.82
C1 -1.68 0.58 0.82
C1 -10.68 2.31 0.82
C1 -8.68 2.31 0.82
C1 -6.68 2.31 0.82
C1 -4.68 2.31 0.82
C1 -2.68 2.31 0.82
C1 -9.68 4.04 0.82
C1 -7.68 4.04 0.82
C1 -5.68 4.04 0.82
C1 -3.68 4.04 0.82
C1 -6.68 5.77 0.82
C1 -9.68 -4.04 2.45
C1 -7.68 -4.04 2.45
C1 -5.68 -4.04 2.45
C1 -3.68 -4.04 2.45
C1 -10.68 -2.31 2.45
C1 -8.68 -2.31 2.45
C1 -6.68 -2.31 2.45
C1 -4.68 -2.31 2.45
C1 -2.68 -2.31 2.45
C1 -9.68 -0.58 2.45
C1 -7.68 -0.58 2.45
C1 -5.68 -0.58 2.45
C1 -3.68 -0.58 2.45
C1 -1.68 -0.58 2.45
C1 -10.68 1.15 2.45
C1 -8.68 1.15 2.45
C1 -6.68 1.15 2.45
C1 -4.68 1.15 2.45
C1 -2.68 1.15 2.45
C1 -9.68 2.89 2.45
C1 -7.68 2.89 2.45
C1 -5.68 2.89 2.45
C1 -3.68 2.89 2.45
C1 -1.68 2.89 2.45
C1 -8.68 4.62 2.45
C1 -6.68 4.62 2.45
C1 -4.68 4.62 2.45
C1 -7.68 -2.89 4.08
C1 -5.68 -2.89 4.08
C1 -3.68 -2.89 4.08
C1 -8.68 -1.15 4.08
C1 -6.68 -1.15 4.08
C1 -4.68 -1.15 4.08
C1 -2.68 -1.15 4.08
C1 -9.68 0.58 4.08
C1 -7.68 0.58 4.08
C1 -5.68 0.58 4.08
C1 -3.68 0.58 4.08
C1 -8.68 2.31 4.08
C1 -6.68 2.31 4.08
C1 -4.68 2.31 4.08
C1 -2.68 2.31 4.08
C1 -7.68 4.04 4.08
C1 -5.68 4.04 4.08
C1 -7.68 -0.58 5.72
C1 -5.68 -0.58 5.72
C1 -6.68 1.15 5.72
C1 5.68 -1.15 -5.72
C1 4.68 0.58 -5.72
C1 6.68 0.58 -5.72
C1 4.68 -4.04 -4.08
C1 6.68 -4.04 -4.08
C1 3.68 -2.31 -4.08
C1 5.68 -2.31 -4.08
C1 7.68 -2.31 -4.08
C1 9.68 -2.31 -4.08
C1 2.68 -0.58 -4.08
C1 4.68 -0.58 -4.08
C1 6.68 -0.58 -4.08
C1 8.68 -0.58 -4.08
C1 3.68 1.15 -4.08
C1 5.68 1.15 -4.08
C1 7.68 1.15 -4.08
C1 9.68 1.15 -4.08
C1 4.68 2.89 -4.08
C1 6.68 2.89 -4.08
C1 8.68 2.89 -4.08
C1 3.68 -4.62 -2.45
C1 5.68 -4.62 -2.45
C1 7.68 -4.62 -2.45
C1 2.68 -2.89 -2.45
C1 4.68 -2.89 -2.45
C1 6.68 -2.89 -2.45
C1 8.68 -2.89 -2.45
C1 10.68 -2.89 -2.45
C1 1.68 -1.15 -2.45
C1 3.68 -1.15 -2.45
C1 5.68 -1.15 -2.45
C1 7.68 -1.15 -2.45
C1 9.68 -1.15 -2.45
C1 2.68 0.58 -2.45
C1 4.68 0.58 -2.45
C1 6.68 0.58 -2.45
C1 8.68 0.58 -2.45
C1 10.68 0.58 -2.45
C1 1.68 2.31 -2.45
C1 3.68 2.31 -2.45
C1 5.68 2.31 -2.45
C1 7.68 2.31 -2.45
C1 9.68 2.31 -2.45
C1 2.68 4.04 -2.45
C1 4.68 4.04 -2.45
C1 6.68 4.04 -2.45
C1 8.68 4.04 -2.45
C1 5.68 -5.77 -0.82
C1 2.68 -4.04 -0.82
C1 4.68 -4.04 -0.82
C1 6.68 -4.04 -0.82
C1 8.68 -4.04 -0.82
C1 1.68 -2.31 -0.82
C1 3.68 -2.31 -0.82
C1 5.68 -2.31 -0.82
C1 7.68 -2.31 -0.82
C1 9.68 -2.31 -0.82
C1 0.68 -0.58 -0.82
C1 2.68 -0.58 -0.82
C1 4.68 -0.58 -0.82
C1 6.68 -0.58 -0.82
C1 8.68 -0.58 -0.82
C1 10.68 -0.58 -0.82
C1 1.68 1.15 -0.82
C1 3.68 1.15 -0.82
C1 5.68 1.15 -0.82
C1 7.68 1.15 -0.82
C1 9.68 1.15 -0.82
C1 11.68 1.15 -0.82
C1 2.68 2.89 -0.82
C1 4.68 2.89 -0.82
C1 6.68 2.89 -0.82
C1 8.68 2.89 -0.82
C1 10.68 2.89 -0.82
C1 3.68 4.62 -0.82
C1 5.68 4.62 -0.82
C1 7.68 4.62 -0.82
C1 9.68 4.62 -0.82
C1 3.68 -4.62 0.82
C1 5.68 -4.62 0.82
C1 7.68 -4.62 0.82
C1 9.68 -4.62 0.82
C1 2.68 -2.89 0.82
C1 4.68 -2.89 0.82
C1 6.68 -2.89 0.82
C1 8.68 -2.89 0.82
C1 10.68 -2.89 0.82
C1 1.68 -1.15 0.82
C1 3.68 -1.15 0.82
C1 5.68 -1.15 0.82
C1 7.68 -1.15 0.82
C1 9.68 -1.15 0.82
C1 11.68 -1.15 0.82
C1 0.68 0.58 0.82
C1 2.68 0.58 0.82
C1 4.68 0.58 0.82
C1 6.68 0.58 0.82
C1 8.68 0.58 0.82
C1 10.68 0.58 0.82
C1 1.68 2.31 0.82
C1 3.68 2.31 0.82
C1 5.68 2.31 0.82
C1 7.68 2.31 0.82
C1 9.68 2.31 0.82
C1 2.68 4.04 0.82
C1 4.68 4.04 0.82
C1 6.68 4.04 0.82
C1 8.68 4.04 0.82
C1 5.68 5.77 0.82
C1 2.68 -4.04 2.45
C1 4.68 -4.04 2.45
C1 6.68 -4.04 2.45
C1 8.68 -4.04 2.45
C1 1.68 -2.31 2.45
C1 3.68 -2.31 2.45
C1 5.68 -2.31 2.45
C1 7.68 -2.31 2.45
C1 9.68 -2.31 2.45
C1 2.68 -0.58 2.45
C1 4.68 -0.58 2.45
C1 6.68 -0.58 2.45
C1 8.68 -0.58 2.45
C1 10.68 -0.58 2.45
C1 1.68 1.15 2.45
C1 3.68 1.15 2.45
C1 5.68 1.15 2.45
C1 7.68 1.15 2.45
C1 9.68 1.15 2.45
C1 2.68 2.89 2.45
C1 4.68 2.89 2.45
C1 6.68 2.89 2.45
C1 8.68 2.89 2.45
C1 10.68 2.89 2.45
C1 3.68 4.62 2.45
C1 5.68 4.62 2.45
C1 7.68 4.62 2.45
C1 4.68 -2.89 4.08
C1 6.68 -2.89 4.08
C1 8.68 -2.89 4.08
C1 3.68 -1.15 4.08
C1 5.68 -1.15 4.08
C1 7.68 -1.15 4.08
C1 9.68 -1.15 4.08
C1 2.68 0.58 4.08
C1 4.68 0.58 4.08
C1 6.68 0.58 4.08
C1 8.68 0.58 4.08
C1 3.68 2.31 4.08
C1 5.68 2.31 4.08
C1 7.68 2.31 4.08
C1 9.68 2.31 4.08
C1 4.68 4.04 4.08
C1 6.68 4.04 4.08
C1 4.68 -0.58 5.72
C1 6.68 -0.58 5.72
C1 5.68 1.15 5.72
