22
Initial Data (3)
C1 -0.5 -0.58 -2.45
C1 1.5 -0.58 -2.45
C1 0.5 1.15 -2.45
C1 -1.5 -1.15 -0.82
C1 0.5 -1.15 -0.82
C1 2.5 -1.15 -0.82
C1 -2.5 0.58 -0.82
C1 -0.5 0.58 -0.82
C1 1.5 0.58 -0.82
C1 -1.5 2.31 -0.82
C1 0.5 2.31 -0.82
C1 -1.5 -2.31 0.82
C1 0.5 -2.31 0.82
C1 -2.5 -0.58 0.82
C1 -0.5 -0.58 0.82
C1 1.5 -0.58 0.82
C1 -1.5 1.15 0.82
C1 0.5 1.15 0.82
C1 2.5 1.15 0.82
C1 0.5 -1.15 2.45
C1 -0.5 0.58 2.45
C1 1.5 0.58 2.45
