22
Initial Data (3)
Ca -0.5 -0.58 -2.45
He 1.5 -0.58 -2.45
Ca 0.5 1.15 -2.45
He -1.5 -1.15 -0.82
Ca 0.5 -1.15 -0.82
He 2.5 -1.15 -0.82
Ca -2.5 0.58 -0.82
He -0.5 0.58 -0.82
Ca 1.5 0.58 -0.82
He -1.5 2.31 -0.82
Ca 0.5 2.31 -0.82
He -1.5 -2.31 0.82
Ca 0.5 -2.31 0.82
He -2.5 -0.58 0.82
Ca -0.5 -0.58 0.82
He 1.5 -0.58 0.82
Ca -1.5 1.15 0.82
He 0.5 1.15 0.82
Ca 2.5 1.15 0.82
He 0.5 -1.15 2.45
Ca -0.5 0.58 2.45
He 1.5 0.58 2.45
